39
CM.com
 C                 -1.51806100    0.13187700   -0.45246600
 C                 -0.64139400    0.36579600   -1.60055500
 C                 -1.40108500    0.97837100    0.64830000
 C                  0.37558000    1.24208300   -1.54835600
 H                 -0.87398900   -0.19937300   -2.49651100
 C                 -2.76788400   -0.74207000   -0.60032900
 C                 -0.20656500    1.65611800    0.85621600
 H                 -2.12580100    0.90541100    1.44833600
 C                  0.74858000    1.94705200   -0.28188600
 H                  1.01655500    1.42438200   -2.40590600
 O                 -3.08019600   -1.06900200   -1.77237000
 O                 -3.37500700   -1.03482400    0.47639500
 H                 -0.08968500    2.28581300    1.73308700
 O                  0.78157100    3.39143800   -0.55736100
 H                  1.75526900    1.62119200    0.01645900
 H                  1.29387000    3.78682100    0.16127700
 C                 -0.11028700   -1.77658600    0.58954800
 C                  0.91827600   -0.90419500    0.90580400
 H                  0.06163500   -2.53264900   -0.16614700
 H                 -1.00356700   -1.84179600    1.19127500
 C                  2.25649800   -1.00243400    0.12104600
 O                  0.76335000    0.04757100    1.76972000
 O                  3.03840100   -0.00362100    0.18090800
 O                  2.45922600   -2.08584500   -0.48853200
 O                 -2.20858300   -0.84381400    3.10292500
 H                 -1.30774000   -0.58222100    2.85760400
 H                 -2.65541500   -0.94075900    2.23369700
 O                  5.72155700   -0.76645300    0.93637100
 H                  4.81031400   -0.41988200    0.97674200
 H                  5.67657100   -1.18603600    0.05770200
 O                  4.77385800   -1.33250400   -1.73007600
 H                  4.00585600   -1.85133900   -1.37940100
 H                  4.47075000   -0.46999800   -1.39666000
 O                 -1.89198500    4.25288700   -0.04679700
 H                 -0.98785900    4.06227900   -0.36024700
 H                 -2.24880400    3.35914800    0.04931200
 O                 -5.47064300   -2.38854200   -0.94979100
 H                 -4.79007500   -2.06470600   -1.57137900
 H                 -5.02220600   -2.07068700   -0.14430400
